/*--------------------------------*- C++ -*----------------------------------*\
| =========                 |                                                 |
| \\      /  F ield         | OpenFOAM: The Open Source CFD Toolbox           |
|  \\    /   O peration     | Version:  v2012                                 |
|   \\  /    A nd           | Website:  www.openfoam.com                      |
|    \\/     M anipulation  |                                                 |
\*---------------------------------------------------------------------------*/
FoamFile
{
    version     2.0;
    format      ascii;
    class       volScalarField;
    object      p;
}
// * * * * * * * * * * * * * * * * * * * * * * * * * * * * * * * * * * * * * //

dimensions      [0 2 -2 0 0 0 0];

internalField   uniform 100000;

boundaryField
{	
	CRAHinlet
    {
        type            zeroGradient;
    }
    CRAHoutlet
    {
        type            fixedvalue;
        value			$internalField;
    }
    wall
    {
        type            zeroGradient;
    }
    cab_inlet-z
    {
        type            zeroGradient;
    }
    cab_inlet+z
    {
        type            zeroGradient;
    }
    cab_outlet-z
    {
        type            fixedvalue;
        value			$internalField;
    }
    cab_outlet+z
    {
        type            fixedvalue;
        value			$internalField;
    }
}

// ************************************************************************* //
