/*--------------------------------*- C++ -*----------------------------------*\
| =========                 |                                                 |
| \\      /  F ield         | OpenFOAM: The Open Source CFD Toolbox           |
|  \\    /   O peration     | Version:  v2012                                 |
|   \\  /    A nd           | Website:  www.openfoam.com                      |
|    \\/     M anipulation  |                                                 |
\*---------------------------------------------------------------------------*/
FoamFile
{
    version     2.0;
    format      ascii;
    class       volScalarField;
    location    "0";
    object      alphat;
}
// * * * * * * * * * * * * * * * * * * * * * * * * * * * * * * * * * * * * * //

dimensions      [0 2 -1 0 0 0 0];

internalField   uniform 2.3039e-5;

boundaryField
{
    inlet
    {
        type            fixedValue;
		value			$internalField;
    }
    outlet
    {
        type            zeroGradient;
    }
    hs
    {
        type            alphatJayatillekeWallFunction;
        Prt             0.71;
        value           $internalField;
    }
    wall-solid
    {
        type            alphatJayatillekeWallFunction;
        Prt             0.71;
        value           $internalField;
    }
	frontandback
    {
        type            empty;
    }
}


// ************************************************************************* //
